Circuit: * C:\Users\Jeff\Documents\GitHub\HS1_Motor_Test\LTC6992SPICE\Voltage Controlled PWM\LTC6992-1_TA01A.asc

Direct Newton iteration failed to find .op point.  (Use ".option noopiter" to skip.)
Starting Gmin stepping
Gmin = 10
Gmin = 1.07374
Gmin = 0.115292
Gmin = 0.0123794
Gmin = 0.00132923
Gmin = 0.000142725
vernier = 0.5
vernier = 0.25
vernier = 0.125
vernier = 0.0625
Gmin = 0.000124915
vernier = 0.03125
vernier = 0.015625
Gmin = 0.000121554
vernier = 0.0208333
vernier = 0.0277778
Gmin = 0.000114607
vernier = 0.037037
vernier = 0.0493827
Gmin = 0.000104358
vernier = 0.0658435
Gmin = 9.00876e-005
vernier = 0.0877914
vernier = 0.117055
Gmin = 7.0467e-005
vernier = 0.156073
vernier = 0.208098
Gmin = 4.77685e-005
vernier = 0.277464
Gmin = 2.60783e-005
vernier = 0.369952
vernier = 0.493269
Gmin = 9.6332e-006
vernier = 0.657691
vernier = 0.876922
Gmin = 2.0603e-006
vernier = 1
Gmin = 2.44414e-007
Gmin = 2.62438e-008
Gmin = 2.8179e-009
Gmin = 3.0257e-010
Gmin = 3.24882e-011
Gmin = 3.4884e-012
Gmin = 3.74564e-013
Gmin = 0
Gmin stepping succeeded in finding the operating point.


Date: Thu Jan 14 11:48:27 2021
Total elapsed time: 0.096 seconds.

tnom = 27
temp = 27
method = modified trap
totiter = 4676
traniter = 3485
tranpoints = 1137
accept = 1113
rejected = 24
matrix size = 48
fillins = 1
solver = Normal
Matrix Compiler1: 1.63 KB object code size  0.3/0.2/[0.1]
Matrix Compiler2: 2.71 KB object code size  0.2/0.3/[0.2]

